1

   Abaqus 3DEXPERIENCE R2016x                                  Date 17-Jul-2019   Time 19:28:15
   For use at UNIVERSITE DE TECHNOLOGIE DE TROYES under license from Dassault Systemes or its subsidiary.



                         The Abaqus Software is a product of:

                           Dassault Systemes SIMULIA Corp.
                           1301 Atwood Avenue, Suite 101W
                              Johnston, RI 02919, USA
 


                   Available for internal use at UNIVERSITE DE TECHNOLOGIE DE TROYES. 
                   The Abaqus Online Support System is accessible
                   through the "My Support" section of the SIMULIA
                   Home Page at http://www.simulia.com.

                   Support policies for academic licenses are described
                   on the SIMULIA web site at
                   http://www.3ds.com/products/simulia/academics/
 
                          On machine p-num3d 
                          you are authorized to run
                          Abaqus/Standard until 16-Sep-2019

                          Your site id is: 100000000001683 


 
                    For assistance or any other information you may
                    obtain contact information for your local office
                    from the world wide web at:

                      http://www.3ds.com/products/simulia/locations/

 
                * * * * * * * * * * * * * * * * * * * * * * * * * * * * * * 
                *                                                         * 
                *                   *****************                     * 
                *                   *  N O T I C E  *                     * 
                *                   *****************                     * 
                *                                                         * 
                *                                                         * 
                *                    Abaqus 3DEXPERIENCE R2016x                                   * 
                *                                                         * 
                *          BUILD ID: 2015_09_24-22.31.09 126547           * 
                *                                                         * 
                *                                                         * 
                *  Please make sure you are using release 3DEXPERIENCE R2016x manuals    * 
                *  plus the notes accompanying this release.              * 
                *                                                         * 
                *                                                         * 
                *                                                         * 
                *                                                         * 
                *                                                         * 
                *   This program may not be used for commercial purposes  * 
                *           without payment of a commercial fee.          * 
                *                                                         * 
                * * * * * * * * * * * * * * * * * * * * * * * * * * * * * * 


 



     PROCESSING PART, INSTANCE, AND ASSEMBLY INFORMATION
   *******************************************************


     END PROCESSING PART, INSTANCE, AND ASSEMBLY INFORMATION
   ***********************************************************




     OPTIONS BEING PROCESSED
   ***************************


  *Heading
  *Node
  *Element, type=CPS3
  *Nset, nset=ASSEMBLY_PART-1-1_SET-1
  *Elset, elset=ASSEMBLY_PART-1-1_SET-1
  *Nset, nset=ASSEMBLY_SET-2
  *Nset, nset=ASSEMBLY_SET-3
  *Nset, nset=ASSEMBLY_SET-4
  *material, name=PLA
  *elastic
  *solidsection, elset=ASSEMBLY_PART-1-1_SET-1, material=PLA
  *solidsection, elset=ASSEMBLY_PART-1-1_SET-1, material=PLA
  *boundary
  *boundary
  *boundary
  *boundary
  *output, field
  *output, history, variable=PRESELECT
  *elementoutput, directions=YES
  *output, field
  *output, history, variable=PRESELECT
  *elementoutput, directions=YES
  *output, field
  *output, history, variable=PRESELECT
  *elementoutput, directions=YES
  
                               E L E M E N T   Q U A L I T Y  C H E C K S        
  
  
 ***NOTES: DISTORTED ISOPARAMETRIC ELEMENTS: ANGLE BETWEEN ISOPARAMETRIC LINES 
           IS LESS THAN 45 DEGREES OR GREATER THAN 135 DEGREES.
  
           TETRAHEDRAL QUALITY MEASURE: VOLUME OF TETRAHEDRON DIVIDED BY THE 
           VOLUME OF EQUILATERAL TETRAHEDRON WITH SAME CIRCUMSPHERE RADIUS; 
           0 FOR DEGENERATE TETRAHEDRON AND 1 FOR EQUILATERIAL TETRAHEDRON. IT 
           IS RECOMMENDED THAT THE TETRAHEDRAL QUALITY MEASURE BE GREATER THAN 
           0.02, THE MIN INTERIOR (DIHEDRAL) ANGLE BE GREATER THAN 10 DEGREES, 
           AND THE MAX INTERIOR (DIHEDRAL) ANGLE BE LESS THAN 160 DEGREES. 
  
           MODIFIED TETRAHEDRAL QUALITY MEASURE: ANGLES BETWEEN THE TWO LINE 
           SEGMENTS ON EACH EDGE; THE EDGES OF MODIFIED TETRAHEDRAL SHOULD BE 
           AS STRAIGHT AS POSSIBLE. IT IS RECOMMENDED THAT THE ANGLE BETWEEN 
           THE TWO LINE SEGMENTS ON EACH EDGE IS BETWEEN 160 AND 180 DEGREES. 
  
           TRIANGULAR QUALITY MEASURE: AREA OF TRIANGLE DIVIDED BY THE AREA OF 
           EQUILATERAL TRIANGLE WITH SAME CIRCUMCIRCLE RADIUS; 0 FOR DEGENERATE 
           TRIANGLE AND 1 FOR EQUILATERAL TRIANGLE. IT IS RECOMMENDED THAT THE
           TRIANGULAR QUALITY MEASURE BE GREATER THAN 0.01, THE MIN INTERIOR 
           ANGLE BE GREATER THAN 10 DEGREES, AND THE MAX INTERIOR ANGLE BE LESS 
           THAN 160 DEGREES. 
  
           NODAL ADJUSTMENTS ARISING FROM CONTACT INTERACTIONS AND/OR TIE 
           CONSTRAINTS CAN CAUSE SEVERE ELEMENT DISTORTION. IT MAY BE NECESSARY 
           TO REMESH IN ORDER TO REDUCE THE AMOUNT OF ADJUSTMENT. 

 ***WARNING: 1068 elements are distorted. Either the isoparametric angles are 
             out of the suggested limits or the triangular or tetrahedral 
             quality measure is bad. The elements have been identified in 
             element set WarnElemDistorted.
  
 --------------------------------------------------------------------------------
 Distorted triangular elements
  
      Element       Quality measure     Min angle        Max angle     Adjusted nodes 
 ------------------ ---------------- ---------------- ---------------- -------------- 
         PART-1-1.1        0.0128293         0.477457          89.9502       NO       
         PART-1-1.2         0.020201         0.950741          116.741       NO       
         PART-1-1.3        0.0128291         0.477454              90.       NO       
         PART-1-1.4        0.0128291         0.477454              90.       NO       
         PART-1-1.5        0.0188387         0.918122          118.626       NO       
         PART-1-1.6       0.00938771         0.408424          112.145       NO       
         PART-1-1.7        0.0128291         0.477454              90.       NO       
         PART-1-1.8        0.0128139         0.476884           89.958       NO       
         PART-1-1.9       0.00961088          0.41325          111.307       NO       
        PART-1-1.10        0.0720805          2.68639              90.       NO       
        PART-1-1.11        0.0311518          1.16974          94.7813       NO       
        PART-1-1.12         0.012549         0.472212           95.783       NO       
        PART-1-1.13        0.0126445         0.473626          94.3676       NO       
        PART-1-1.14        0.0128088         0.476693          89.9524       NO       
        PART-1-1.15        0.0128088         0.476693          89.9509       NO       
        PART-1-1.16        0.0128293         0.477457          89.9517       NO       
        PART-1-1.17         0.105376          4.52284          108.915       NO       
        PART-1-1.18        0.0128293         0.477457           89.953       NO       
        PART-1-1.19        0.0128087         0.476693          89.9538       NO       
        PART-1-1.20        0.0128139         0.476885          89.9295       NO       
        PART-1-1.21        0.0128293         0.477457          89.9545       NO       
        PART-1-1.22        0.0128139         0.476884          89.9551       NO       
        PART-1-1.23        0.0306115           1.1602          97.1167       NO       
        PART-1-1.24        0.0128293         0.477457          89.9559       NO       
        PART-1-1.25        0.0128087         0.476693          89.9566       NO       
        PART-1-1.26        0.0128293         0.477458          89.9303       NO       
        PART-1-1.27        0.0128293         0.477456          89.9574       NO       
        PART-1-1.28        0.0128291         0.477454              90.       NO       
        PART-1-1.29        0.0128293         0.477456          89.9587       NO       
        PART-1-1.30        0.0128087         0.476692          89.9595       NO       
        PART-1-1.31        0.0114135          1.00038          138.832       NO       
        PART-1-1.32        0.0128293         0.477456          89.9603       NO       
        PART-1-1.33        0.0128139         0.476883          89.9608       NO       
        PART-1-1.34        0.0128139         0.476885          89.9324       NO       
        PART-1-1.35        0.0128292         0.477456          89.9616       NO       
        PART-1-1.36        0.0128087         0.476692          89.9624       NO       
        PART-1-1.37        0.0128292         0.477456          89.9629       NO       
        PART-1-1.38        0.0128087         0.476692          89.9637       NO       
        PART-1-1.39        0.0128088         0.476694          89.9339       NO       
        PART-1-1.40        0.0128292         0.477456          89.9645       NO       
        PART-1-1.41        0.0128087         0.476692          89.9652       NO       
        PART-1-1.42        0.0255043          1.05942          108.281       NO       
        PART-1-1.43        0.0128292         0.477456          89.9658       NO       
        PART-1-1.44        0.0128087         0.476692          89.9666       NO       
        PART-1-1.45        0.0128293         0.477458          89.9347       NO       
        PART-1-1.46        0.0128292         0.477456          89.9673       NO       
        PART-1-1.47        0.0128138         0.476883          89.9679       NO       
        PART-1-1.48        0.0128292         0.477456          89.9687       NO       
        PART-1-1.49        0.0128087         0.476692          89.9694       NO       
        PART-1-1.50        0.0209098         0.778234          89.9146       NO       
        PART-1-1.51        0.0128292         0.477456          89.9702       NO       
        PART-1-1.52        0.0128138         0.476883          89.9708       NO       
        PART-1-1.53        0.0128088         0.476694          89.9368       NO       
        PART-1-1.54        0.0128292         0.477456          89.9715       NO       
        PART-1-1.55        0.0128087         0.476692          89.9723       NO       
        PART-1-1.56        0.0128292         0.477456          89.9731       NO       
        PART-1-1.57        0.0128138         0.476883          89.9736       NO       
        PART-1-1.58        0.0128293         0.477458          89.9374       NO       
        PART-1-1.59        0.0128292         0.477455          89.9744       NO       
        PART-1-1.60        0.0128087         0.476692          89.9752       NO       
        PART-1-1.61        0.0128292         0.477455          89.9757       NO       
        PART-1-1.62        0.0128087         0.476691          89.9765       NO       
        PART-1-1.63        0.0128292         0.477455          89.9773       NO       
        PART-1-1.64        0.0128087         0.476691           89.978       NO       
        PART-1-1.65        0.0128088         0.476694          89.9396       NO       
        PART-1-1.66        0.0128292         0.477455          89.9786       NO       
        PART-1-1.67        0.0128087         0.476691          89.9794       NO       
        PART-1-1.68        0.0128292         0.477455          89.9801       NO       
        PART-1-1.69        0.0128138         0.476882          89.9807       NO       
        PART-1-1.70        0.0128088         0.476693           89.941       NO       
        PART-1-1.71        0.0128292         0.477455          89.9815       NO       
        PART-1-1.72        0.0128087         0.476691          89.9822       NO       
        PART-1-1.73        0.0309133          1.16572           95.951       NO       
        PART-1-1.74        0.0128292         0.477455           89.983       NO       
        PART-1-1.75        0.0128138         0.476882          89.9836       NO       
        PART-1-1.76        0.0128293         0.477457          89.9417       NO       
        PART-1-1.77        0.0128292         0.477455          89.9843       NO       
        PART-1-1.78        0.0128086         0.476691          89.9851       NO       
        PART-1-1.79        0.0128292         0.477455          89.9859       NO       
        PART-1-1.80        0.0128138         0.476882          89.9864       NO       
        PART-1-1.81        0.0128293         0.477457          89.9431       NO       
        PART-1-1.82        0.0128292         0.477455          89.9872       NO       
        PART-1-1.83        0.0128086         0.476691           89.988       NO       
        PART-1-1.84        0.0125705         0.472238          95.3144       NO       
        PART-1-1.85        0.0128292         0.477455          89.9885       NO       
        PART-1-1.86        0.0128086         0.476691          89.9893       NO       
        PART-1-1.87        0.0128293         0.477457          89.9446       NO       
        PART-1-1.88        0.0128292         0.477454          89.9901       NO       
        PART-1-1.89        0.0128086         0.476691          89.9908       NO       
        PART-1-1.90        0.0303561          1.13005          90.1409       NO       
        PART-1-1.91        0.0128291         0.477454          89.9914       NO       
        PART-1-1.92        0.0128086          0.47669          89.9922       NO       
        PART-1-1.93        0.0128293         0.477457           89.946       NO       
        PART-1-1.94        0.0128291         0.477454          89.9929       NO       
        PART-1-1.95        0.0128137         0.476881          89.9935       NO       
        PART-1-1.96        0.0124352         0.469691          96.7288       NO       
        PART-1-1.97        0.0128291         0.477454          89.9943       NO       
        PART-1-1.98        0.0128086          0.47669           89.995       NO       
        PART-1-1.99        0.0128293         0.477457          89.9475       NO       
       PART-1-1.100        0.0128291         0.477454          89.9958       NO       
       PART-1-1.101        0.0128137         0.476881          89.9964       NO       
       PART-1-1.103        0.0128291         0.477454          89.9971       NO       
       PART-1-1.104        0.0128086          0.47669          89.9979       NO       
       PART-1-1.105        0.0128293         0.477457          89.9488       NO       
       PART-1-1.106        0.0128291         0.477454          89.9987       NO       
       PART-1-1.107        0.0128137         0.476881          89.9992       NO       
       PART-1-1.108        0.0128293         0.477458          89.9274       NO       
       PART-1-1.109        0.0128291         0.477454              90.       NO       
       PART-1-1.110        0.0128086          0.47669              90.       NO       
       PART-1-1.111        0.0128291         0.477454              90.       NO       
       PART-1-1.112        0.0128291         0.477454              90.       NO       
       PART-1-1.113        0.0128291         0.477454              90.       NO       
       PART-1-1.114        0.0128291         0.477454              90.       NO       
       PART-1-1.115        0.0128291         0.477454              90.       NO       
       PART-1-1.116        0.0128291         0.477454              90.       NO       
       PART-1-1.117        0.0128291         0.477454              90.       NO       
       PART-1-1.118        0.0128291         0.477454              90.       NO       
       PART-1-1.119        0.0128291         0.477454              90.       NO       
       PART-1-1.120        0.0128291         0.477454              90.       NO       
       PART-1-1.121        0.0128291         0.477454              90.       NO       
       PART-1-1.122        0.0128291         0.477454              90.       NO       
       PART-1-1.123        0.0128291         0.477454              90.       NO       
       PART-1-1.124        0.0128291         0.477454              90.       NO       
       PART-1-1.125        0.0128291         0.477454              90.       NO       
       PART-1-1.126        0.0128291         0.477454              90.       NO       
       PART-1-1.127        0.0128291         0.477454              90.       NO       
       PART-1-1.128        0.0128291         0.477454              90.       NO       
       PART-1-1.129        0.0128291         0.477454              90.       NO       
       PART-1-1.130        0.0128291         0.477454              90.       NO       
       PART-1-1.131        0.0128291         0.477454              90.       NO       
       PART-1-1.132        0.0128291         0.477454              90.       NO       
       PART-1-1.133        0.0128291         0.477454              90.       NO       
       PART-1-1.134        0.0128291         0.477454              90.       NO       
       PART-1-1.135        0.0128291         0.477454              90.       NO       
       PART-1-1.136        0.0128291         0.477454              90.       NO       
       PART-1-1.137        0.0128291         0.477454              90.       NO       
       PART-1-1.138        0.0128291         0.477454              90.       NO       
       PART-1-1.139        0.0128291         0.477454              90.       NO       
       PART-1-1.140        0.0128291         0.477454              90.       NO       
       PART-1-1.141        0.0128291         0.477454              90.       NO       
       PART-1-1.142        0.0128291         0.477454              90.       NO       
       PART-1-1.143        0.0128291         0.477454              90.       NO       
       PART-1-1.144        0.0128291         0.477454              90.       NO       
       PART-1-1.145        0.0128291         0.477454              90.       NO       
       PART-1-1.146        0.0128291         0.477454              90.       NO       
       PART-1-1.147        0.0128291         0.477454              90.       NO       
       PART-1-1.148        0.0128291         0.477454              90.       NO       
       PART-1-1.149        0.0128291         0.477454              90.       NO       
       PART-1-1.150        0.0128291         0.477454              90.       NO       
       PART-1-1.151        0.0128291         0.477454              90.       NO       
       PART-1-1.152        0.0128291         0.477454              90.       NO       
       PART-1-1.153        0.0128291         0.477454              90.       NO       
       PART-1-1.154        0.0128291         0.477454              90.       NO       
       PART-1-1.155        0.0128291         0.477454              90.       NO       
       PART-1-1.156        0.0128291         0.477454              90.       NO       
       PART-1-1.157        0.0128291         0.477454              90.       NO       
       PART-1-1.158        0.0128291         0.477454              90.       NO       
       PART-1-1.159        0.0128291         0.477454              90.       NO       
       PART-1-1.160        0.0128291         0.477454              90.       NO       
       PART-1-1.161        0.0128291         0.477454              90.       NO       
       PART-1-1.162        0.0128291         0.477454              90.       NO       
       PART-1-1.163        0.0128291         0.477454              90.       NO       
       PART-1-1.164        0.0128291         0.477454              90.       NO       
       PART-1-1.165        0.0128291         0.477454              90.       NO       
       PART-1-1.166        0.0128291         0.477454              90.       NO       
       PART-1-1.167        0.0128291         0.477454              90.       NO       
       PART-1-1.168        0.0128291         0.477454              90.       NO       
       PART-1-1.169        0.0128291         0.477454              90.       NO       
       PART-1-1.170        0.0128291         0.477454              90.       NO       
       PART-1-1.171        0.0128291         0.477454              90.       NO       
       PART-1-1.172        0.0128291         0.477454              90.       NO       
       PART-1-1.173        0.0128291         0.477454              90.       NO       
       PART-1-1.174        0.0128291         0.477454              90.       NO       
       PART-1-1.175        0.0128291         0.477454              90.       NO       
       PART-1-1.176        0.0128291         0.477454              90.       NO       
       PART-1-1.177        0.0128291         0.477454              90.       NO       
       PART-1-1.178        0.0128291         0.477454              90.       NO       
       PART-1-1.179        0.0128291         0.477454              90.       NO       
       PART-1-1.180        0.0128291         0.477454              90.       NO       
       PART-1-1.181        0.0128291         0.477454              90.       NO       
       PART-1-1.182        0.0128291         0.477454              90.       NO       
       PART-1-1.183        0.0128291         0.477454              90.       NO       
       PART-1-1.184        0.0128291         0.477454              90.       NO       
       PART-1-1.185        0.0128291         0.477454              90.       NO       
       PART-1-1.186        0.0128291         0.477454              90.       NO       
       PART-1-1.187        0.0128291         0.477454              90.       NO       
       PART-1-1.188        0.0128291         0.477454              90.       NO       
       PART-1-1.189        0.0128291         0.477454              90.       NO       
       PART-1-1.190        0.0128291         0.477454              90.       NO       
       PART-1-1.191        0.0128291         0.477454              90.       NO       
       PART-1-1.192        0.0128291         0.477454              90.       NO       
       PART-1-1.193        0.0128291         0.477454              90.       NO       
       PART-1-1.194        0.0128291         0.477454              90.       NO       
       PART-1-1.195        0.0128291         0.477454              90.       NO       
       PART-1-1.196        0.0128291         0.477454              90.       NO       
       PART-1-1.197        0.0128291         0.477454              90.       NO       
       PART-1-1.198        0.0128291         0.477454              90.       NO       
       PART-1-1.199        0.0128291         0.477454              90.       NO       
       PART-1-1.200        0.0128291         0.477454              90.       NO       
       PART-1-1.201        0.0128291         0.477454              90.       NO       
       PART-1-1.202        0.0128291         0.477454              90.       NO       
       PART-1-1.203        0.0128291         0.477454              90.       NO       
       PART-1-1.204        0.0128291         0.477454              90.       NO       
       PART-1-1.205        0.0128291         0.477454              90.       NO       
       PART-1-1.206        0.0128291         0.477454              90.       NO       
       PART-1-1.207        0.0128291         0.477454              90.       NO       
       PART-1-1.208        0.0128291         0.477454              90.       NO       
       PART-1-1.209        0.0128291         0.477454              90.       NO       
       PART-1-1.210        0.0128291         0.477454              90.       NO       
       PART-1-1.211        0.0128291         0.477454              90.       NO       
       PART-1-1.212        0.0128291         0.477454              90.       NO       
       PART-1-1.213        0.0128291         0.477454              90.       NO       
       PART-1-1.214        0.0128291         0.477454              90.       NO       
       PART-1-1.215        0.0128291         0.477454              90.       NO       
       PART-1-1.216        0.0128291         0.477454              90.       NO       
       PART-1-1.217        0.0128291         0.477454              90.       NO       
       PART-1-1.218        0.0128291         0.477454              90.       NO       
       PART-1-1.219        0.0128291         0.477454              90.       NO       
       PART-1-1.220        0.0128291         0.477454              90.       NO       
       PART-1-1.221        0.0128291         0.477454              90.       NO       
       PART-1-1.222        0.0128291         0.477454              90.       NO       
       PART-1-1.223        0.0128291         0.477454              90.       NO       
       PART-1-1.224        0.0128291         0.477454              90.       NO       
       PART-1-1.225        0.0128291         0.477454              90.       NO       
       PART-1-1.226        0.0128291         0.477454              90.       NO       
       PART-1-1.227        0.0128291         0.477454              90.       NO       
       PART-1-1.228        0.0128291         0.477454              90.       NO       
       PART-1-1.229        0.0128291         0.477454              90.       NO       
       PART-1-1.230        0.0128291         0.477454              90.       NO       
       PART-1-1.231        0.0128291         0.477454              90.       NO       
       PART-1-1.232        0.0128291         0.477454              90.       NO       
       PART-1-1.233        0.0128291         0.477454              90.       NO       
       PART-1-1.234        0.0128291         0.477454              90.       NO       
       PART-1-1.235        0.0128291         0.477454              90.       NO       
       PART-1-1.236        0.0128291         0.477454              90.       NO       
       PART-1-1.237        0.0128291         0.477454              90.       NO       
       PART-1-1.238        0.0128291         0.477454              90.       NO       
       PART-1-1.239        0.0128291         0.477454              90.       NO       
       PART-1-1.240        0.0128291         0.477454              90.       NO       
       PART-1-1.241        0.0128291         0.477454              90.       NO       
       PART-1-1.242        0.0128291         0.477454              90.       NO       
       PART-1-1.243        0.0128291         0.477454              90.       NO       
       PART-1-1.244        0.0128291         0.477454              90.       NO       
       PART-1-1.245        0.0128291         0.477454              90.       NO       
       PART-1-1.246        0.0128291         0.477454              90.       NO       
       PART-1-1.247        0.0128291         0.477454              90.       NO       
       PART-1-1.248        0.0128291         0.477454              90.       NO       
       PART-1-1.249        0.0128291         0.477454              90.       NO       
       PART-1-1.250        0.0128291         0.477454              90.       NO       
       PART-1-1.251        0.0128291         0.477454              90.       NO       
       PART-1-1.252        0.0128291         0.477454              90.       NO       
       PART-1-1.253        0.0128291         0.477454              90.       NO       
       PART-1-1.254        0.0128291         0.477454              90.       NO       
       PART-1-1.255        0.0128291         0.477454              90.       NO       
       PART-1-1.256        0.0128291         0.477454              90.       NO       
       PART-1-1.257        0.0128291         0.477454              90.       NO       
       PART-1-1.258        0.0128291         0.477454              90.       NO       
       PART-1-1.259        0.0128291         0.477454              90.       NO       
       PART-1-1.260        0.0128291         0.477454              90.       NO       
       PART-1-1.261        0.0128291         0.477454              90.       NO       
       PART-1-1.262        0.0128291         0.477454              90.       NO       
       PART-1-1.263        0.0128291         0.477454              90.       NO       
       PART-1-1.264        0.0128291         0.477454              90.       NO       
       PART-1-1.265        0.0128291         0.477454              90.       NO       
       PART-1-1.266        0.0128291         0.477454              90.       NO       
       PART-1-1.267        0.0128291         0.477454              90.       NO       
       PART-1-1.268        0.0128291         0.477454              90.       NO       
       PART-1-1.269        0.0128291         0.477454              90.       NO       
       PART-1-1.270        0.0128291         0.477454              90.       NO       
       PART-1-1.271        0.0128291         0.477454              90.       NO       
       PART-1-1.272        0.0128291         0.477454              90.       NO       
       PART-1-1.273        0.0128291         0.477454              90.       NO       
       PART-1-1.274        0.0128291         0.477454              90.       NO       
       PART-1-1.275        0.0128291         0.477454              90.       NO       
       PART-1-1.276        0.0128291         0.477454              90.       NO       
       PART-1-1.277        0.0128291         0.477454              90.       NO       
       PART-1-1.278        0.0128291         0.477454              90.       NO       
       PART-1-1.279        0.0128291         0.477454              90.       NO       
       PART-1-1.280        0.0128753         0.479173          89.9906       NO       
       PART-1-1.281        0.0128292         0.477455          89.9891       NO       
       PART-1-1.282        0.0128702         0.478982          89.9969       NO       
       PART-1-1.283        0.0128291         0.477454          89.9954       NO       
       PART-1-1.284        0.0128702         0.478983          89.9784       NO       
       PART-1-1.285        0.0128292         0.477455          89.9769       NO       
       PART-1-1.286        0.0128292         0.477455           89.983       NO       
       PART-1-1.287        0.0128292         0.477455          89.9799       NO       
       PART-1-1.288        0.0128703         0.478984           89.966       NO       
       PART-1-1.289        0.0128292         0.477456          89.9645       NO       
       PART-1-1.290        0.0128703         0.478983          89.9721       NO       
       PART-1-1.291        0.0128703         0.478984          89.9691       NO       
       PART-1-1.292        0.0128703         0.478984          89.9536       NO       
       PART-1-1.293        0.0128293         0.477457          89.9521       NO       
       PART-1-1.294        0.0128704         0.478985          89.9414       NO       
       PART-1-1.295       0.00969216         0.415658          111.115       NO       
       PART-1-1.296        0.0128704         0.478986          89.9244       NO       
       PART-1-1.297       0.00947172         0.410904          111.944       NO       
       PART-1-1.298        0.0128294         0.477458          89.9244       NO       
       PART-1-1.299        0.0114201         0.451191          103.714       NO       
       PART-1-1.300        0.0128293         0.477457          89.9551       NO       
       PART-1-1.301        0.0111438           0.4457          105.063       NO       
       PART-1-1.302       0.00902742          0.40115          113.573       NO       
       PART-1-1.303        0.0128755         0.479176          89.9396       NO       
       PART-1-1.304       0.00880467          0.39617          114.373       NO       
       PART-1-1.305        0.0108523         0.439832          106.394       NO       
       PART-1-1.306        0.0128704         0.478987          89.9135       NO       
       PART-1-1.307       0.00869682         0.393815          114.769       NO       
       PART-1-1.308        0.0128294         0.477459           89.912       NO       
       PART-1-1.309         0.010548         0.433622          107.707       NO       
       PART-1-1.310        0.0128704         0.478987           89.912       NO       
       PART-1-1.311        0.0103393          0.42931          108.573       NO       
       PART-1-1.312        0.0101266         0.424871          109.429       NO       
       PART-1-1.313       0.00825013         0.383491          116.329       NO       
       PART-1-1.314       0.00991462         0.420485          110.276       NO       
       PART-1-1.315       0.00996802         0.420859          109.929       NO       
       PART-1-1.316       0.00986028         0.418578           110.35       NO       
       PART-1-1.317        0.0110864         0.470473          110.298       NO       
       PART-1-1.318        0.0115946         0.454626          102.807       NO       
       PART-1-1.319       0.00943742         0.409504           111.96       NO       
       PART-1-1.320       0.00932736         0.407109          112.369       NO       
       PART-1-1.321       0.00921705         0.404695          112.776       NO       
       PART-1-1.322       0.00980168            0.418          110.697       NO       
       PART-1-1.323       0.00866402         0.392366          114.775       NO       
       PART-1-1.324       0.00855357         0.389857          115.168       NO       
       PART-1-1.325        0.0128704         0.478986          89.9305       NO       
       PART-1-1.326         0.010019         0.422608          109.854       NO       
       PART-1-1.327       0.00833333         0.384805          115.945       NO       
       PART-1-1.328        0.0128704         0.478986          89.9335       NO       
       PART-1-1.329        0.0102334         0.427105          109.002       NO       
       PART-1-1.330        0.0104442         0.431482          108.141       NO       
       PART-1-1.331        0.0128293         0.477458          89.9335       NO       
       PART-1-1.332       0.00836052         0.386048          115.942       NO       
       PART-1-1.333       0.00858218         0.391133          115.163       NO       
       PART-1-1.334       0.00891604         0.398668          113.974       NO       
       PART-1-1.335       0.00924995         0.406065          112.763       NO       
       PART-1-1.336       0.00918135          0.40391          112.907       NO       
       PART-1-1.337        0.0232707          1.01921          112.292       NO       
       PART-1-1.338        0.0239181          1.03231           111.26       NO       
       PART-1-1.339        0.0113298         0.449405          104.166       NO       
       PART-1-1.340        0.0102867         0.427533          108.653       NO       
       PART-1-1.341        0.0101813         0.425338          109.081       NO       
       PART-1-1.342        0.0100751         0.423112          109.506       NO       
       PART-1-1.343        0.0115084         0.452932          103.261       NO       
       PART-1-1.344       0.00987363         0.418861          110.298       NO       
       PART-1-1.345       0.00976534         0.416558          110.717       NO       
       PART-1-1.346       0.00965649          0.41423          111.134       NO       
       PART-1-1.347       0.00954716         0.411878          111.548       NO       
       PART-1-1.348        0.0128704         0.478986          89.9259       NO       
       PART-1-1.349       0.00910654         0.402261          113.181       NO       
       PART-1-1.350       0.00899592         0.399811          113.583       NO       
       PART-1-1.351       0.00888525         0.397344          113.983       NO       
       PART-1-1.352       0.00960712          0.41317          111.321       NO       
       PART-1-1.353       0.00950138         0.410889           111.72       NO       
       PART-1-1.354         0.183397          6.88169          89.2699       NO       
       PART-1-1.355        0.0433173          1.61258          89.2699       NO       
       PART-1-1.356        0.0305875          1.13923          90.8825       NO       
       PART-1-1.357        0.0305019          1.13763          92.0217       NO       
       PART-1-1.358        0.0303686          1.13514          93.1593       NO       
       PART-1-1.359        0.0301888          1.13177          94.2945       NO       
       PART-1-1.360        0.0299635          1.12754          95.4262       NO       
       PART-1-1.361        0.0296944          1.12247          96.5538       NO       
       PART-1-1.362        0.0293833          1.11657          97.6763       NO       
       PART-1-1.363        0.0290323          1.10988          98.7928       NO       
       PART-1-1.364        0.0106507         0.435728          107.272       NO       
       PART-1-1.365        0.0094976         0.410808          111.734       NO       
       PART-1-1.366       0.00938384          0.40834           112.16       NO       
       PART-1-1.367       0.00949374         0.410724          111.749       NO       
       PART-1-1.368        0.0236889          1.02948          111.749       NO       
       PART-1-1.369        0.0195154         0.934467          117.692       NO       
       PART-1-1.370       0.00847123         0.388596          115.554       NO       
       PART-1-1.371        0.0128294         0.477459          89.9104       NO       
       PART-1-1.372        0.0141293          0.65661          116.176       NO       
       PART-1-1.373        0.0193387         0.886953          115.289       NO       
       PART-1-1.374        0.0205279         0.927531          114.361       NO       
       PART-1-1.375        0.0212851         0.947602          113.413       NO       
       PART-1-1.376        0.0219605         0.963654           112.45       NO       
       PART-1-1.377        0.0226145         0.978559          111.471       NO       
       PART-1-1.378        0.0232464         0.992386          110.479       NO       
       PART-1-1.379        0.0238718           1.0059          109.473       NO       
       PART-1-1.380         0.024484          1.01889          108.454       NO       
       PART-1-1.381        0.0250755          1.03113          107.423       NO       
       PART-1-1.382         0.025656          1.04308           106.38       NO       
       PART-1-1.383        0.0262184          1.05454          105.325       NO       
       PART-1-1.384        0.0267598          1.06547           104.26       NO       
       PART-1-1.385        0.0272729          1.07563          103.184       NO       
       PART-1-1.386        0.0277589          1.08517          102.099       NO       
       PART-1-1.387        0.0282152          1.09406          101.005       NO       
       PART-1-1.388        0.0286389          1.10224          99.9027       NO       
       PART-1-1.390        0.0327541           1.3321          106.257       NO       
       PART-1-1.392       0.00917092         0.403681          112.946       NO       
       PART-1-1.393         0.112715           4.2194          91.3368       NO       
       PART-1-1.394         0.123648          4.89495          101.362       NO       
       PART-1-1.395        0.0359096          1.33685              90.       NO       
       PART-1-1.396        0.0087746         0.394862          114.381       NO       
       PART-1-1.397         0.249409          9.39241          86.7592       NO       
       PART-1-1.398       0.00844332         0.387336          115.558       NO       
       PART-1-1.399        0.0193586         0.961182          119.544       NO       
       PART-1-1.400       0.00807988         0.378908          116.832       NO       
       PART-1-1.401        0.0079711         0.376349          117.211       NO       
       PART-1-1.402       0.00786279         0.373783          117.587       NO       
       PART-1-1.403         0.007755         0.371212          117.961       NO       
       PART-1-1.404       0.00764777         0.368636          118.332       NO       
       PART-1-1.405       0.00754114         0.366057          118.701       NO       
       PART-1-1.406       0.00743515         0.363476          119.067       NO       
       PART-1-1.407       0.00732984         0.360893          119.431       NO       
       PART-1-1.408       0.00722525         0.358309          119.791       NO       
       PART-1-1.409        0.0071214         0.355724           120.15       NO       
       PART-1-1.410       0.00822364         0.382264           116.33       NO       
       PART-1-1.411        0.0208904         0.966753          115.774       NO       
       PART-1-1.412        0.0215916         0.982922          114.791       NO       
       PART-1-1.413        0.0222924         0.998748          113.793       NO       
       PART-1-1.414          0.02299          1.01418          112.778       NO       
       PART-1-1.415        0.0238321          1.03258          111.535       NO       
       PART-1-1.416       0.00955049          0.41195          111.535       NO       
       PART-1-1.417        0.0242504          1.04161          110.906       NO       
       PART-1-1.418        0.0097162         0.415509          110.906       NO       
       PART-1-1.419       0.00927753          0.40602          112.554       NO       
       PART-1-1.420        0.0235612          1.02662          111.933       NO       
       PART-1-1.421       0.00944459          0.40966          111.933       NO       
       PART-1-1.422        0.0239807          1.03572          111.307       NO       
       PART-1-1.423        0.0107522         0.437798          106.834       NO       
       PART-1-1.424       0.00928132         0.406103           112.54       NO       
       PART-1-1.425       0.00906036          0.40124          113.349       NO       
       PART-1-1.426        0.0093915         0.408507          112.131       NO       
       PART-1-1.427        0.0230117          1.01449          112.736       NO       
       PART-1-1.428         0.010951         0.441827          105.952       NO       
       PART-1-1.429       0.00928503         0.406184          112.526       NO       
       PART-1-1.430       0.00917463         0.403762          112.932       NO       
       PART-1-1.431       0.00906408         0.401322          113.336       NO       
       PART-1-1.432        0.0230173          1.01454          112.723       NO       
       PART-1-1.433        0.0092886         0.406263          112.513       NO       
       PART-1-1.434       0.00917821         0.403841          112.919       NO       
       PART-1-1.435        0.0232891          1.02019          112.303       NO       
       PART-1-1.436       0.00934534         0.407502          112.303       NO       
       PART-1-1.437         0.009228         0.404935          112.736       NO       
       PART-1-1.438       0.00911751         0.402504          113.141       NO       
       PART-1-1.439        0.0231554          1.01766          112.526       NO       
       PART-1-1.440        0.0110526         0.443961          105.508       NO       
       PART-1-1.441       0.00923167         0.405015          112.723       NO       
       PART-1-1.442       0.00912118         0.402585          113.128       NO       
       PART-1-1.443        0.0231571          1.01753          112.513       NO       
       PART-1-1.444       0.00913875         0.403616          113.169       NO       
       PART-1-1.445       0.00923507          0.40509           112.71       NO       
       PART-1-1.446        0.0234205          1.02282          112.092       NO       
       PART-1-1.447       0.00940188         0.408732          112.092       NO       
       PART-1-1.448       0.00929173         0.406331          112.501       NO       
       PART-1-1.449       0.00936097         0.408494          112.355       NO       
       PART-1-1.450        0.0245075          1.04295          110.217       NO       
       PART-1-1.451        0.0248431          1.04315          109.174       NO       
       PART-1-1.452        0.0229045         0.950143          108.224       NO       
       PART-1-1.453        0.0103911         0.429698          108.224       NO       
       PART-1-1.454        0.0128704         0.478985          89.9429       NO       
       PART-1-1.455        0.0112377         0.447574          104.615       NO       
       PART-1-1.456        0.0128294         0.477458          89.9227       NO       
       PART-1-1.457       0.00958214         0.413292          111.531       NO       
       PART-1-1.458        0.0128704         0.478986          89.9274       NO       
       PART-1-1.459        0.0116787         0.456272          102.351       NO       
       PART-1-1.460        0.0117606         0.457869          101.893       NO       
       PART-1-1.461        0.0118402         0.459415          101.433       NO       
       PART-1-1.462        0.0119173          0.46091          100.972       NO       
       PART-1-1.463        0.0119968         0.462537           100.51       NO       
       PART-1-1.464        0.0120642         0.463741          100.046       NO       
       PART-1-1.465        0.0121337         0.465075           99.581       NO       
       PART-1-1.466        0.0122005         0.466353          99.1147       NO       
       PART-1-1.467        0.0122644         0.467574          98.6471       NO       
       PART-1-1.468        0.0123255         0.468737          98.1784       NO       
       PART-1-1.469        0.0123837         0.469842          97.7085       NO       
       PART-1-1.470        0.0124389         0.470887          97.2376       NO       
       PART-1-1.471         0.012491         0.471872          96.7658       NO       
       PART-1-1.472        0.0125399         0.472796           96.293       NO       
       PART-1-1.473        0.0125857         0.473658          95.8193       NO       
       PART-1-1.474        0.0126333         0.474647          95.3447       NO       
       PART-1-1.475        0.0126674         0.475194          94.8695       NO       
       PART-1-1.476        0.0127033         0.475867          94.3936       NO       
       PART-1-1.477        0.0127358         0.476475          93.9171       NO       
       PART-1-1.478        0.0127649         0.477018          93.4401       NO       
       PART-1-1.479        0.0127905         0.477496          92.9626       NO       
       PART-1-1.480        0.0128126         0.477908          92.4847       NO       
       PART-1-1.481        0.0128311         0.478255          92.0064       NO       
       PART-1-1.482        0.0128461         0.478534          91.5279       NO       
       PART-1-1.483        0.0128576         0.478748          91.0492       NO       
       PART-1-1.484        0.0128706         0.479085          90.5701       NO       
       PART-1-1.485        0.0128698         0.478974          90.0911       NO       
       PART-1-1.486        0.0128704         0.478987          89.9089       NO       
       PART-1-1.487        0.0128704         0.478987          89.9104       NO       
       PART-1-1.488        0.0128293         0.477458          89.9381       NO       
       PART-1-1.489        0.0128293         0.477458          89.9366       NO       
       PART-1-1.490        0.0128293         0.477457          89.9414       NO       
       PART-1-1.491        0.0128704         0.478985          89.9381       NO       
       PART-1-1.492        0.0128294         0.477458          89.9196       NO       
       PART-1-1.493        0.0128294         0.477458          89.9211       NO       
       PART-1-1.494        0.0128704         0.478986          89.9211       NO       
       PART-1-1.495        0.0128755         0.479177          89.9227       NO       
       PART-1-1.496        0.0128293         0.477457          89.9475       NO       
       PART-1-1.497        0.0128703         0.478985          89.9444       NO       
       PART-1-1.498        0.0128703         0.478985           89.949       NO       
       PART-1-1.499        0.0128703         0.478985          89.9475       NO       
       PART-1-1.500        0.0128292         0.477456           89.966       NO       
       PART-1-1.501        0.0128704         0.478986           89.932       NO       
       PART-1-1.502        0.0128294         0.477459          89.9135       NO       
       PART-1-1.503        0.0128294         0.477459           89.915       NO       
       PART-1-1.504        0.0128704         0.478986           89.915       NO       
       PART-1-1.505        0.0128294         0.477459          89.9165       NO       
       PART-1-1.506        0.0128704         0.478986          89.9165       NO       
       PART-1-1.507        0.0128294         0.477458          89.9181       NO       
       PART-1-1.508        0.0128704         0.478986          89.9181       NO       
       PART-1-1.509        0.0128704         0.478986          89.9196       NO       
       PART-1-1.510        0.0128703         0.478984          89.9584       NO       
       PART-1-1.511        0.0128293         0.477456          89.9584       NO       
       PART-1-1.512        0.0128293         0.477457          89.9429       NO       
       PART-1-1.513        0.0128293         0.477458          89.9259       NO       
       PART-1-1.514        0.0128293         0.477458          89.9274       NO       
       PART-1-1.515        0.0128293         0.477457           89.946       NO       
       PART-1-1.516        0.0128293         0.477458           89.929       NO       
       PART-1-1.517        0.0128704         0.478986           89.929       NO       
       PART-1-1.518        0.0128293         0.477458          89.9305       NO       
       PART-1-1.519        0.0128293         0.477458           89.932       NO       
       PART-1-1.520        0.0128293         0.477458          89.9351       NO       
       PART-1-1.521        0.0128704         0.478985          89.9366       NO       
       PART-1-1.522        0.0128704         0.478985          89.9351       NO       
       PART-1-1.523        0.0128293         0.477457          89.9566       NO       
       PART-1-1.524        0.0128702         0.478983          89.9815       NO       
       PART-1-1.525        0.0128293         0.477457          89.9396       NO       
       PART-1-1.526        0.0128293         0.477457          89.9444       NO       
       PART-1-1.527        0.0128703         0.478985           89.946       NO       
       PART-1-1.528        0.0128754         0.479175          89.9566       NO       
       PART-1-1.529        0.0128293         0.477457          89.9505       NO       
       PART-1-1.530        0.0128703         0.478984          89.9599       NO       
       PART-1-1.531        0.0128703         0.478985          89.9521       NO       
       PART-1-1.532        0.0128293         0.477457           89.949       NO       
       PART-1-1.533        0.0128293         0.477457          89.9536       NO       
       PART-1-1.534        0.0128703         0.478984          89.9675       NO       
       PART-1-1.535        0.0128703         0.478985          89.9505       NO       
       PART-1-1.536        0.0128703         0.478984          89.9551       NO       
       PART-1-1.537        0.0128702         0.478983          89.9861       NO       
       PART-1-1.538        0.0128293         0.477456          89.9599       NO       
       PART-1-1.539        0.0128292         0.477456          89.9675       NO       
       PART-1-1.540        0.0128703         0.478984          89.9614       NO       
       PART-1-1.541        0.0128292         0.477456          89.9706       NO       
       PART-1-1.542        0.0128292         0.477456          89.9629       NO       
       PART-1-1.543        0.0128292         0.477455          89.9754       NO       
       PART-1-1.544        0.0128292         0.477456          89.9614       NO       
       PART-1-1.545        0.0128703         0.478984          89.9645       NO       
       PART-1-1.546        0.0128703         0.478984          89.9629       NO       
       PART-1-1.547        0.0128702         0.478983          89.9769       NO       
       PART-1-1.548        0.0128292         0.477456          89.9691       NO       
       PART-1-1.549        0.0128703         0.478983          89.9706       NO       
       PART-1-1.550        0.0128702         0.478983          89.9845       NO       
       PART-1-1.551        0.0128292         0.477456          89.9721       NO       
       PART-1-1.552        0.0128754         0.479174          89.9736       NO       
       PART-1-1.553        0.0128292         0.477456          89.9736       NO       
       PART-1-1.554        0.0128292         0.477455          89.9845       NO       
       PART-1-1.555        0.0128292         0.477455          89.9784       NO       
       PART-1-1.556        0.0128703         0.478983          89.9754       NO       
       PART-1-1.557        0.0128702         0.478983          89.9799       NO       
       PART-1-1.558        0.0128292         0.477455          89.9815       NO       
       PART-1-1.559        0.0128291         0.477454          89.9939       NO       
       PART-1-1.560        0.0128291         0.477454          89.9924       NO       
       PART-1-1.561        0.0128702         0.478983           89.983       NO       
       PART-1-1.562        0.0128702         0.478982          89.9939       NO       
       PART-1-1.563        0.0128292         0.477455          89.9876       NO       
       PART-1-1.564        0.0128292         0.477455          89.9861       NO       
       PART-1-1.565        0.0128702         0.478982          89.9891       NO       
       PART-1-1.566        0.0128702         0.478982          89.9876       NO       
       PART-1-1.567        0.0128291         0.477454          89.9906       NO       
       PART-1-1.568        0.0128702         0.478982          89.9954       NO       
       PART-1-1.569        0.0128702         0.478982          89.9924       NO       
       PART-1-1.570        0.0128291         0.477454              90.       NO       
       PART-1-1.571        0.0128291         0.477454          89.9969       NO       
       PART-1-1.572        0.0128702         0.478982          89.9985       NO       
       PART-1-1.573        0.0128291         0.477454              90.       NO       
       PART-1-1.574        0.0128291         0.477454              90.       NO       
       PART-1-1.575        0.0128291         0.477454          89.9985       NO       
       PART-1-1.576        0.0128291         0.477454              90.       NO       
       PART-1-1.577        0.0128291         0.477454              90.       NO       
       PART-1-1.578        0.0128291         0.477454              90.       NO       
       PART-1-1.579        0.0128291         0.477454              90.       NO       
       PART-1-1.580        0.0128291         0.477454              90.       NO       
       PART-1-1.581        0.0128291         0.477454              90.       NO       
       PART-1-1.582        0.0128291         0.477454              90.       NO       
       PART-1-1.583        0.0128291         0.477454              90.       NO       
       PART-1-1.584        0.0128291         0.477454              90.       NO       
       PART-1-1.585        0.0128291         0.477454              90.       NO       
       PART-1-1.586        0.0128291         0.477454              90.       NO       
       PART-1-1.587        0.0128291         0.477454              90.       NO       
       PART-1-1.588        0.0128291         0.477454              90.       NO       
       PART-1-1.589        0.0128291         0.477454              90.       NO       
       PART-1-1.590        0.0128291         0.477454              90.       NO       
       PART-1-1.591        0.0128291         0.477454              90.       NO       
       PART-1-1.592        0.0128291         0.477454              90.       NO       
       PART-1-1.593        0.0128291         0.477454              90.       NO       
       PART-1-1.594        0.0128291         0.477454              90.       NO       
       PART-1-1.595        0.0128291         0.477454              90.       NO       
       PART-1-1.596        0.0128291         0.477454              90.       NO       
       PART-1-1.597        0.0128291         0.477454              90.       NO       
       PART-1-1.598        0.0128291         0.477454              90.       NO       
       PART-1-1.599        0.0128291         0.477454              90.       NO       
       PART-1-1.600        0.0128291         0.477454              90.       NO       
       PART-1-1.601        0.0128291         0.477454              90.       NO       
       PART-1-1.602        0.0128291         0.477454              90.       NO       
       PART-1-1.603        0.0128291         0.477454              90.       NO       
       PART-1-1.604        0.0128291         0.477454              90.       NO       
       PART-1-1.605        0.0128291         0.477454              90.       NO       
       PART-1-1.606        0.0128291         0.477454              90.       NO       
       PART-1-1.607        0.0128291         0.477454              90.       NO       
       PART-1-1.608        0.0128291         0.477454              90.       NO       
       PART-1-1.609        0.0128291         0.477454              90.       NO       
       PART-1-1.610        0.0128291         0.477454              90.       NO       
       PART-1-1.611        0.0128291         0.477454              90.       NO       
       PART-1-1.612        0.0128291         0.477454              90.       NO       
       PART-1-1.613        0.0128291         0.477454              90.       NO       
       PART-1-1.614        0.0128291         0.477454              90.       NO       
       PART-1-1.615        0.0128291         0.477454              90.       NO       
       PART-1-1.616        0.0128291         0.477454              90.       NO       
       PART-1-1.617        0.0128291         0.477454              90.       NO       
       PART-1-1.618        0.0128291         0.477454              90.       NO       
       PART-1-1.619        0.0128291         0.477454              90.       NO       
       PART-1-1.620        0.0128291         0.477454              90.       NO       
       PART-1-1.621        0.0128291         0.477454              90.       NO       
       PART-1-1.622        0.0128291         0.477454              90.       NO       
       PART-1-1.623        0.0128291         0.477454              90.       NO       
       PART-1-1.624        0.0128291         0.477454              90.       NO       
       PART-1-1.625        0.0128291         0.477454              90.       NO       
       PART-1-1.626        0.0128291         0.477454              90.       NO       
       PART-1-1.627        0.0128291         0.477454              90.       NO       
       PART-1-1.628        0.0128291         0.477454              90.       NO       
       PART-1-1.629        0.0128291         0.477454              90.       NO       
       PART-1-1.630        0.0128291         0.477454              90.       NO       
       PART-1-1.631        0.0128291         0.477454              90.       NO       
       PART-1-1.632        0.0128291         0.477454              90.       NO       
       PART-1-1.633        0.0128291         0.477454              90.       NO       
       PART-1-1.634        0.0128291         0.477454              90.       NO       
       PART-1-1.635        0.0128291         0.477454              90.       NO       
       PART-1-1.636        0.0128291         0.477454              90.       NO       
       PART-1-1.637        0.0128291         0.477454              90.       NO       
       PART-1-1.638        0.0128291         0.477454              90.       NO       
       PART-1-1.639        0.0128291         0.477454              90.       NO       
       PART-1-1.640        0.0128291         0.477454              90.       NO       
       PART-1-1.641        0.0128291         0.477454              90.       NO       
       PART-1-1.642        0.0128291         0.477454              90.       NO       
       PART-1-1.643        0.0128291         0.477454              90.       NO       
       PART-1-1.644        0.0128291         0.477454              90.       NO       
       PART-1-1.645        0.0128291         0.477454              90.       NO       
       PART-1-1.646        0.0128291         0.477454              90.       NO       
       PART-1-1.647        0.0128291         0.477454              90.       NO       
       PART-1-1.648        0.0128291         0.477454              90.       NO       
       PART-1-1.649        0.0128291         0.477454              90.       NO       
       PART-1-1.650        0.0128291         0.477454              90.       NO       
       PART-1-1.651        0.0128291         0.477454              90.       NO       
       PART-1-1.652        0.0128291         0.477454              90.       NO       
       PART-1-1.653        0.0128291         0.477454              90.       NO       
       PART-1-1.654        0.0128291         0.477454              90.       NO       
       PART-1-1.655        0.0128291         0.477454              90.       NO       
       PART-1-1.656        0.0128291         0.477454              90.       NO       
       PART-1-1.657        0.0128291         0.477454              90.       NO       
       PART-1-1.658        0.0128291         0.477454              90.       NO       
       PART-1-1.659        0.0128291         0.477454              90.       NO       
       PART-1-1.660        0.0128291         0.477454              90.       NO       
       PART-1-1.661        0.0128291         0.477454              90.       NO       
       PART-1-1.662        0.0128291         0.477454              90.       NO       
       PART-1-1.663        0.0128291         0.477454              90.       NO       
       PART-1-1.664        0.0128291         0.477454              90.       NO       
       PART-1-1.665        0.0128291         0.477454              90.       NO       
       PART-1-1.666        0.0128291         0.477454              90.       NO       
       PART-1-1.667        0.0128291         0.477454              90.       NO       
       PART-1-1.668        0.0128291         0.477454              90.       NO       
       PART-1-1.669        0.0128291         0.477454              90.       NO       
       PART-1-1.670        0.0128291         0.477454              90.       NO       
       PART-1-1.671        0.0128291         0.477454              90.       NO       
       PART-1-1.672        0.0128291         0.477454              90.       NO       
       PART-1-1.673        0.0128291         0.477454              90.       NO       
       PART-1-1.674        0.0128291         0.477454              90.       NO       
       PART-1-1.675        0.0128291         0.477454              90.       NO       
       PART-1-1.676        0.0128291         0.477454              90.       NO       
       PART-1-1.677        0.0128291         0.477454              90.       NO       
       PART-1-1.678        0.0128291         0.477454              90.       NO       
       PART-1-1.679        0.0128291         0.477454              90.       NO       
       PART-1-1.680        0.0128291         0.477454              90.       NO       
       PART-1-1.681        0.0128291         0.477454              90.       NO       
       PART-1-1.682        0.0128291         0.477454              90.       NO       
       PART-1-1.683        0.0128291         0.477454              90.       NO       
       PART-1-1.684        0.0128291         0.477454              90.       NO       
       PART-1-1.685        0.0128291         0.477454              90.       NO       
       PART-1-1.686        0.0128291         0.477454              90.       NO       
       PART-1-1.687        0.0128291         0.477454              90.       NO       
       PART-1-1.688        0.0128291         0.477454              90.       NO       
       PART-1-1.689        0.0128291         0.477454              90.       NO       
       PART-1-1.690        0.0128291         0.477454              90.       NO       
       PART-1-1.691        0.0128291         0.477454              90.       NO       
       PART-1-1.692        0.0128291         0.477454              90.       NO       
       PART-1-1.693        0.0128291         0.477454              90.       NO       
       PART-1-1.694        0.0128291         0.477454              90.       NO       
       PART-1-1.695        0.0128291         0.477454              90.       NO       
       PART-1-1.696        0.0128291         0.477454              90.       NO       
       PART-1-1.697        0.0128291         0.477454              90.       NO       
       PART-1-1.698        0.0128291         0.477454              90.       NO       
       PART-1-1.699        0.0128291         0.477454              90.       NO       
       PART-1-1.700        0.0128291         0.477454              90.       NO       
       PART-1-1.701        0.0128291         0.477454              90.       NO       
       PART-1-1.702        0.0128291         0.477454              90.       NO       
       PART-1-1.703        0.0128291         0.477454              90.       NO       
       PART-1-1.704        0.0128291         0.477454              90.       NO       
       PART-1-1.705        0.0128291         0.477454              90.       NO       
       PART-1-1.706        0.0128291         0.477454              90.       NO       
       PART-1-1.707        0.0128291         0.477454              90.       NO       
       PART-1-1.708        0.0128291         0.477454              90.       NO       
       PART-1-1.709        0.0128291         0.477454              90.       NO       
       PART-1-1.710        0.0128291         0.477454              90.       NO       
       PART-1-1.711        0.0128291         0.477454              90.       NO       
       PART-1-1.712        0.0128291         0.477454              90.       NO       
       PART-1-1.713        0.0128291         0.477454              90.       NO       
       PART-1-1.714        0.0128291         0.477454              90.       NO       
       PART-1-1.715        0.0128291         0.477454              90.       NO       
       PART-1-1.716        0.0128291         0.477454              90.       NO       
       PART-1-1.717        0.0128291         0.477454              90.       NO       
       PART-1-1.718        0.0128291         0.477454              90.       NO       
       PART-1-1.719        0.0128291         0.477454              90.       NO       
       PART-1-1.720        0.0128291         0.477454              90.       NO       
       PART-1-1.721        0.0128291         0.477454              90.       NO       
       PART-1-1.722        0.0128291         0.477454              90.       NO       
       PART-1-1.723        0.0128291         0.477454              90.       NO       
       PART-1-1.724        0.0128291         0.477454              90.       NO       
       PART-1-1.725        0.0128291         0.477454              90.       NO       
       PART-1-1.726        0.0128291         0.477454              90.       NO       
       PART-1-1.727        0.0128291         0.477454              90.       NO       
       PART-1-1.728        0.0128291         0.477454              90.       NO       
       PART-1-1.729        0.0128291         0.477454              90.       NO       
       PART-1-1.730        0.0128291         0.477454              90.       NO       
       PART-1-1.731        0.0128291         0.477454              90.       NO       
       PART-1-1.732        0.0128291         0.477454              90.       NO       
       PART-1-1.733        0.0128291         0.477454              90.       NO       
       PART-1-1.734        0.0128291         0.477454              90.       NO       
       PART-1-1.735        0.0128291         0.477454              90.       NO       
       PART-1-1.736        0.0128291         0.477454              90.       NO       
       PART-1-1.737        0.0128291         0.477454              90.       NO       
       PART-1-1.738        0.0128291         0.477454              90.       NO       
       PART-1-1.739        0.0128291         0.477454              90.       NO       
       PART-1-1.740        0.0128291         0.477454              90.       NO       
       PART-1-1.741        0.0128291         0.477454              90.       NO       
       PART-1-1.742        0.0128291         0.477454              90.       NO       
       PART-1-1.743        0.0128291         0.477454              90.       NO       
       PART-1-1.744        0.0128291         0.477454              90.       NO       
       PART-1-1.745        0.0128291         0.477454              90.       NO       
       PART-1-1.746        0.0128291         0.477454              90.       NO       
       PART-1-1.747        0.0128291         0.477454              90.       NO       
       PART-1-1.748        0.0128291         0.477454              90.       NO       
       PART-1-1.749        0.0128291         0.477454              90.       NO       
       PART-1-1.750        0.0128291         0.477454              90.       NO       
       PART-1-1.751        0.0128291         0.477454              90.       NO       
       PART-1-1.752        0.0128291         0.477454              90.       NO       
       PART-1-1.753        0.0128291         0.477454              90.       NO       
       PART-1-1.754        0.0128291         0.477454              90.       NO       
       PART-1-1.755        0.0128291         0.477454              90.       NO       
       PART-1-1.756        0.0128291         0.477454              90.       NO       
       PART-1-1.757        0.0128291         0.477454              90.       NO       
       PART-1-1.758        0.0128291         0.477454              90.       NO       
       PART-1-1.759        0.0128291         0.477454              90.       NO       
       PART-1-1.760        0.0128291         0.477454              90.       NO       
       PART-1-1.761        0.0128291         0.477454              90.       NO       
       PART-1-1.762        0.0128291         0.477454              90.       NO       
       PART-1-1.763        0.0128291         0.477454              90.       NO       
       PART-1-1.764        0.0128291         0.477454              90.       NO       
       PART-1-1.765        0.0128291         0.477454              90.       NO       
       PART-1-1.766        0.0128291         0.477454              90.       NO       
       PART-1-1.767        0.0128291         0.477454              90.       NO       
       PART-1-1.768        0.0128291         0.477454              90.       NO       
       PART-1-1.769        0.0128291         0.477454              90.       NO       
       PART-1-1.770        0.0128291         0.477454              90.       NO       
       PART-1-1.771        0.0128291         0.477454              90.       NO       
       PART-1-1.772        0.0128291         0.477454              90.       NO       
       PART-1-1.773        0.0128291         0.477454              90.       NO       
       PART-1-1.774        0.0128291         0.477454              90.       NO       
       PART-1-1.775        0.0128291         0.477454              90.       NO       
       PART-1-1.776        0.0128291         0.477454              90.       NO       
       PART-1-1.777        0.0128291         0.477454              90.       NO       
       PART-1-1.778        0.0128291         0.477454              90.       NO       
       PART-1-1.779        0.0128291         0.477454              90.       NO       
       PART-1-1.780        0.0128291         0.477454              90.       NO       
       PART-1-1.781        0.0128291         0.477454              90.       NO       
       PART-1-1.782        0.0128291         0.477454              90.       NO       
       PART-1-1.783        0.0128291         0.477454              90.       NO       
       PART-1-1.784        0.0128291         0.477454              90.       NO       
       PART-1-1.785        0.0128291         0.477454              90.       NO       
       PART-1-1.786        0.0128291         0.477454              90.       NO       
       PART-1-1.787        0.0128291         0.477454              90.       NO       
       PART-1-1.788        0.0128291         0.477454              90.       NO       
       PART-1-1.789        0.0128291         0.477454              90.       NO       
       PART-1-1.790        0.0128291         0.477454              90.       NO       
       PART-1-1.791        0.0128291         0.477454              90.       NO       
       PART-1-1.792        0.0128291         0.477454              90.       NO       
       PART-1-1.793        0.0128291         0.477454              90.       NO       
       PART-1-1.794        0.0128291         0.477454              90.       NO       
       PART-1-1.795        0.0128291         0.477454              90.       NO       
       PART-1-1.796        0.0128291         0.477454              90.       NO       
       PART-1-1.797        0.0128291         0.477454              90.       NO       
       PART-1-1.798        0.0128291         0.477454              90.       NO       
       PART-1-1.799        0.0128291         0.477454              90.       NO       
       PART-1-1.800        0.0128291         0.477454              90.       NO       
       PART-1-1.801        0.0128291         0.477454              90.       NO       
       PART-1-1.802        0.0128291         0.477454              90.       NO       
       PART-1-1.803        0.0128291         0.477454              90.       NO       
       PART-1-1.804        0.0128291         0.477454              90.       NO       
       PART-1-1.805        0.0128291         0.477454              90.       NO       
       PART-1-1.806        0.0128291         0.477454              90.       NO       
       PART-1-1.807        0.0128291         0.477454              90.       NO       
       PART-1-1.808        0.0128291         0.477454              90.       NO       
       PART-1-1.809        0.0128291         0.477454              90.       NO       
       PART-1-1.810        0.0128291         0.477454              90.       NO       
       PART-1-1.811        0.0128291         0.477454              90.       NO       
       PART-1-1.812        0.0128291         0.477454              90.       NO       
       PART-1-1.813        0.0128291         0.477454              90.       NO       
       PART-1-1.814        0.0128291         0.477454              90.       NO       
       PART-1-1.815        0.0128291         0.477454              90.       NO       
       PART-1-1.816        0.0128291         0.477454              90.       NO       
       PART-1-1.817        0.0128291         0.477454              90.       NO       
       PART-1-1.818        0.0128291         0.477454              90.       NO       
       PART-1-1.819        0.0128291         0.477454              90.       NO       
       PART-1-1.820        0.0128291         0.477454              90.       NO       
       PART-1-1.821        0.0128291         0.477454              90.       NO       
       PART-1-1.822        0.0128291         0.477454              90.       NO       
       PART-1-1.823        0.0128291         0.477454              90.       NO       
       PART-1-1.824        0.0128291         0.477454              90.       NO       
       PART-1-1.825        0.0128291         0.477454              90.       NO       
       PART-1-1.826        0.0128291         0.477454              90.       NO       
       PART-1-1.827        0.0128291         0.477454              90.       NO       
       PART-1-1.828        0.0128291         0.477454              90.       NO       
       PART-1-1.829        0.0128291         0.477454              90.       NO       
       PART-1-1.830        0.0128291         0.477454              90.       NO       
       PART-1-1.831        0.0128291         0.477454              90.       NO       
       PART-1-1.832        0.0128291         0.477454              90.       NO       
       PART-1-1.833        0.0128291         0.477454              90.       NO       
       PART-1-1.834        0.0128291         0.477454              90.       NO       
       PART-1-1.835        0.0128291         0.477454              90.       NO       
       PART-1-1.836        0.0128291         0.477454              90.       NO       
       PART-1-1.837        0.0128291         0.477454              90.       NO       
[...]
       PART-1-1.910        0.0128292         0.477455          89.9836       NO       
       PART-1-1.911        0.0128087         0.476691           89.983       NO       
       PART-1-1.912        0.0128292         0.477455          89.9822       NO       
       PART-1-1.913        0.0128087         0.476691          89.9815       NO       
       PART-1-1.914        0.0128292         0.477455          89.9807       NO       
       PART-1-1.915        0.0128087         0.476691          89.9801       NO       
       PART-1-1.916        0.0128292         0.477455          89.9794       NO       
       PART-1-1.917        0.0128088         0.476694          89.9332       NO       
       PART-1-1.918        0.0128138         0.476882          89.9786       NO       
       PART-1-1.919        0.0128292         0.477455           89.978       NO       
       PART-1-1.920        0.0128293         0.477458          89.9324       NO       
       PART-1-1.921        0.0128087         0.476691          89.9773       NO       
       PART-1-1.922        0.0128292         0.477455          89.9765       NO       
       PART-1-1.923         0.029465          1.13891          100.528       NO       
       PART-1-1.924        0.0128138         0.476882          89.9757       NO       
       PART-1-1.925        0.0128292         0.477455          89.9752       NO       
       PART-1-1.926        0.0128087         0.476692          89.9744       NO       
       PART-1-1.927        0.0128292         0.477456          89.9736       NO       
       PART-1-1.928        0.0128087         0.476692          89.9731       NO       
       PART-1-1.929        0.0128292         0.477456          89.9723       NO       
       PART-1-1.930        0.0128088         0.476694          89.9318       NO       
       PART-1-1.931        0.0128087         0.476692          89.9715       NO       
       PART-1-1.932        0.0128292         0.477456          89.9708       NO       
       PART-1-1.933        0.0128293         0.477458          89.9311       NO       
       PART-1-1.934        0.0128087         0.476692          89.9702       NO       
       PART-1-1.935        0.0128292         0.477456          89.9694       NO       
       PART-1-1.936        0.0128087         0.476692          89.9687       NO       
       PART-1-1.937        0.0128292         0.477456          89.9679       NO       
       PART-1-1.938        0.0127703         0.475977          91.9916       NO       
       PART-1-1.939        0.0128087         0.476692          89.9673       NO       
       PART-1-1.940        0.0128292         0.477456          89.9666       NO       
       PART-1-1.941        0.0128138         0.476883          89.9658       NO       
       PART-1-1.942        0.0128292         0.477456          89.9652       NO       
       PART-1-1.943        0.0128088         0.476694          89.9303       NO       
       PART-1-1.944        0.0128087         0.476692          89.9645       NO       
       PART-1-1.945        0.0128292         0.477456          89.9637       NO       
       PART-1-1.946        0.0128293         0.477458          89.9295       NO       
       PART-1-1.947        0.0128138         0.476883          89.9629       NO       
       PART-1-1.948        0.0128292         0.477456          89.9624       NO       
       PART-1-1.949        0.0128087         0.476692          89.9616       NO       
       PART-1-1.950        0.0128292         0.477456          89.9608       NO       
       PART-1-1.951        0.0128087         0.476692          89.9603       NO       
       PART-1-1.952        0.0128293         0.477456          89.9595       NO       
       PART-1-1.953        0.0128088         0.476694           89.929       NO       
       PART-1-1.954        0.0128087         0.476692          89.9587       NO       
       PART-1-1.955        0.0128293         0.477456           89.958       NO       
       PART-1-1.956        0.0128293         0.477458          89.9282       NO       
       PART-1-1.957        0.0128087         0.476693          89.9574       NO       
       PART-1-1.958        0.0128293         0.477457          89.9566       NO       
       PART-1-1.959        0.0228393           1.0023          112.435       NO       
       PART-1-1.960        0.0128087         0.476693          89.9559       NO       
       PART-1-1.961        0.0128293         0.477457          89.9551       NO       
       PART-1-1.962        0.0128087         0.476693          89.9545       NO       
       PART-1-1.963        0.0128293         0.477457          89.9538       NO       
       PART-1-1.964        0.0128139         0.476884           89.953       NO       
       PART-1-1.965        0.0128293         0.477457          89.9524       NO       
       PART-1-1.966         0.012814         0.476885          89.9274       NO       
       PART-1-1.967        0.0128088         0.476693          89.9517       NO       
       PART-1-1.968        0.0128293         0.477457          89.9509       NO       
       PART-1-1.969        0.0128293         0.477458          89.9269       NO       
       PART-1-1.970        0.0128139         0.476884          89.9502       NO       
       PART-1-1.971        0.0128293         0.477457          89.9496       NO       
       PART-1-1.972        0.0128288         0.477448          90.0731       NO       
       PART-1-1.973        0.0128088         0.476693          89.9488       NO       
       PART-1-1.974        0.0128293         0.477457          89.9481       NO       
       PART-1-1.975        0.0128247         0.477371          90.5506       NO       
       PART-1-1.976        0.0128088         0.476693          89.9475       NO       
       PART-1-1.977        0.0128293         0.477457          89.9467       NO       
       PART-1-1.978         0.012817         0.477229           91.028       NO       
       PART-1-1.979        0.0128088         0.476693           89.946       NO       
       PART-1-1.980        0.0128293         0.477457          89.9452       NO       
       PART-1-1.981        0.0128058          0.47702          91.5052       NO       
       PART-1-1.982        0.0128088         0.476693          89.9446       NO       
       PART-1-1.983        0.0128293         0.477457          89.9439       NO       
       PART-1-1.984        0.0127511         0.475999          92.9354       NO       
       PART-1-1.985        0.0128088         0.476693          89.9431       NO       
       PART-1-1.986        0.0128293         0.477457          89.9423       NO       
       PART-1-1.987        0.0126297         0.473729          94.8363       NO       
       PART-1-1.988        0.0126651         0.474392          94.3619       NO       
       PART-1-1.989        0.0128088         0.476693          89.9417       NO       
       PART-1-1.990        0.0128293         0.477457           89.941       NO       
       PART-1-1.991        0.0124554         0.470447          96.7266       NO       
       PART-1-1.992        0.0125038          0.47136          96.2552       NO       
       PART-1-1.993        0.0128139         0.476884          89.9402       NO       
       PART-1-1.994        0.0128293         0.477457          89.9396       NO       
       PART-1-1.995        0.0123295          0.46769          97.6673       NO       
       PART-1-1.996        0.0123493         0.468441          97.6665       NO       
       PART-1-1.997        0.0128088         0.476694          89.9389       NO       
       PART-1-1.998        0.0128293         0.477458          89.9381       NO       
       PART-1-1.999        0.0224029         0.833811          89.8591       NO       
      PART-1-1.1000        0.0127911         0.476745          91.9822       NO       
      PART-1-1.1001        0.0128088         0.476693          89.9496       NO       
      PART-1-1.1002        0.0128139         0.476884          89.9481       NO       
      PART-1-1.1003        0.0128088         0.476693          89.9467       NO       
      PART-1-1.1004        0.0128139         0.476884          89.9452       NO       
      PART-1-1.1005        0.0128088         0.476693          89.9439       NO       
      PART-1-1.1006        0.0128139         0.476884          89.9423       NO       
      PART-1-1.1007        0.0128293         0.477457          89.9402       NO       
      PART-1-1.1008        0.0127354         0.475421          92.9432       NO       
      PART-1-1.1009        0.0128293         0.477457          89.9389       NO       
      PART-1-1.1010        0.0128088         0.476694          89.9381       NO       
      PART-1-1.1011        0.0128293         0.477458           89.936       NO       
      PART-1-1.1012        0.0128139         0.476885          89.9353       NO       
      PART-1-1.1013        0.0128293         0.477458          89.9332       NO       
      PART-1-1.1014        0.0128293         0.477458          89.9318       NO       
      PART-1-1.1015        0.0128088         0.476694          89.9311       NO       
      PART-1-1.1016        0.0128293         0.477458           89.929       NO       
      PART-1-1.1017        0.0329627          1.24274          95.8524       NO       
      PART-1-1.1018        0.0128088         0.476694          89.9282       NO       
      PART-1-1.1020        0.0313249          1.17223          93.6091       NO       
      PART-1-1.1021        0.0127728         0.476405           92.459       NO       
      PART-1-1.1022        0.0127258         0.475528          93.4114       NO       
      PART-1-1.1023        0.0314105           1.1724          92.4367       NO       
      PART-1-1.1024        0.0126972         0.474992          93.8869       NO       
      PART-1-1.1025        0.0126765         0.474225          93.8934       NO       
      PART-1-1.1026         0.012591         0.473002            95.31       NO       
      PART-1-1.1027         0.012752         0.475636          92.4675       NO       
      PART-1-1.1028        0.0124039         0.469474           97.197       NO       
      PART-1-1.1029        0.0311835          1.18183          97.0951       NO       
      PART-1-1.1030        0.0123839          0.46872          97.1985       NO       
      PART-1-1.1031        0.0127851         0.476252          91.5153       NO       
      PART-1-1.1032        0.0125286         0.471451          95.7866       NO       
      PART-1-1.1033        0.0128082         0.476683          90.0854       NO       
      PART-1-1.1034        0.0279316          1.10888          103.916       NO       
      PART-1-1.1035        0.0126142         0.473153          94.8412       NO       
      PART-1-1.1037        0.0273559           1.0973          105.025       NO       
      PART-1-1.1038        0.0127051          0.47476          93.4186       NO       
      PART-1-1.1039        0.0199439          1.47654          134.096       NO       
      PART-1-1.1040        0.0128014         0.476652          91.0387       NO       
      PART-1-1.1042         0.012804         0.476605          90.5621       NO       
      PART-1-1.1043        0.0335159          1.25796          94.5944       NO       
      PART-1-1.1044        0.0338453          1.26584          93.3286       NO       
      PART-1-1.1045         0.024855          1.04585           109.34       NO       
      PART-1-1.1046        0.0340608          1.27063          92.0579       NO       
      PART-1-1.1047        0.0341902          1.27342          90.7845       NO       
      PART-1-1.1048        0.0342472          1.27477          89.5098       NO       
      PART-1-1.1049        0.0342314          1.27467          90.4902       NO       
      PART-1-1.1050        0.0341428          1.27311          91.7649       NO       
      PART-1-1.1051        0.0339875          1.27031           93.038       NO       
      PART-1-1.1052        0.0337666          1.26627          94.3083       NO       
      PART-1-1.1053        0.0334772          1.26083          95.5746       NO       
      PART-1-1.1054        0.0331318           1.2544          96.8354       NO       
      PART-1-1.1055        0.0327234          1.24664          98.0898       NO       
      PART-1-1.1056        0.0322603          1.23779          99.3365       NO       
      PART-1-1.1057        0.0317462          1.22789          100.574       NO       
      PART-1-1.1058        0.0311899          1.21717          101.802       NO       
      PART-1-1.1059        0.0305817          1.20515          103.019       NO       
      PART-1-1.1060        0.0299443          1.19261          104.224       NO       
      PART-1-1.1061        0.0292687          1.17908          105.417       NO       
      PART-1-1.1062        0.0285638          1.16479          106.596       NO       
      PART-1-1.1063        0.0279247          1.15358          107.761       NO       
      PART-1-1.1064        0.0145879          1.13099          135.573       NO       
      PART-1-1.1065        0.0235213          1.01732          111.418       NO       
      PART-1-1.1066        0.0241904          1.03169          110.386       NO       
      PART-1-1.1068        0.0787495          2.93578              90.       NO       
      PART-1-1.1069        0.0261431           1.0727          107.208       NO       
      PART-1-1.1070        0.0267644          1.08546          106.123       NO       
      PART-1-1.1071         0.222318          8.47308          92.6864       NO       
      PART-1-1.1072         0.028475          1.11961          102.797       NO       
      PART-1-1.1073        0.0289872          1.12964          101.667       NO       
      PART-1-1.1074        0.0123845          1.04216          137.789       NO       
      PART-1-1.1075        0.0134385          1.08551          136.704       NO       
  
  
  *Step, name=Step-1, nlgeom=NO, perturbation
  *output, field
  *output, history, variable=PRESELECT
  *Step, name=Step-1, nlgeom=NO, perturbation
  *Step, name=Step-1, nlgeom=NO, perturbation
  *static
  *boundary
  *boundary
  *output, field
  *nodeoutput
  *elementoutput, directions=YES
  *output, history, variable=PRESELECT
  *endstep
  *Step, name=Step-1, nlgeom=NO, perturbation
  *static
  *boundary
  *boundary
  *cload
  *endstep



                            P R O B L E M   S I Z E


          NUMBER OF ELEMENTS IS                                  1075
          NUMBER OF NODES IS                                     1077
          NUMBER OF NODES DEFINED BY THE USER                    1077
          TOTAL NUMBER OF VARIABLES IN THE MODEL                 2154
          (DEGREES OF FREEDOM PLUS MAX NO. OF ANY LAGRANGE MULTIPLIER
           VARIABLES. INCLUDE *PRINT,SOLVE=YES TO GET THE ACTUAL NUMBER.)



                              END OF USER INPUT PROCESSING



     JOB TIME SUMMARY
       USER TIME (SEC)      =  0.60000    
       SYSTEM TIME (SEC)    =  0.40000    
       TOTAL CPU TIME (SEC) =   1.0000    
       WALLCLOCK TIME (SEC) =          1
1

   Abaqus 3DEXPERIENCE R2016x                                  Date 17-Jul-2019   Time 19:28:19
   For use at UNIVERSITE DE TECHNOLOGIE DE TROYES under license from Dassault Systemes or its subsidiary.

                                                                                               STEP    1  INCREMENT    1
                                                                                          TIME COMPLETED IN THIS STEP   0.00    


                        S T E P       1     S T A T I C   A N A L Y S I S


                                                                                          

          FIXED TIME INCREMENTS
          TIME INCREMENT IS                                    2.220E-16
          TIME PERIOD IS                                       2.220E-16

     LINEAR EQUATION SOLVER TYPE         DIRECT SPARSE

     THIS IS A LINEAR PERTURBATION STEP.
     ALL LOADS ARE DEFINED AS CHANGE IN LOAD TO THE REFERENCE STATE
  
                   M E M O R Y   E S T I M A T E
  
 PROCESS      FLOATING PT       MINIMUM MEMORY        MEMORY TO
              OPERATIONS           REQUIRED          MINIMIZE I/O
             PER ITERATION           (MB)               (MB)
  
     1         2.16E+005               13                 21
  
 NOTE:
      (1) SINCE ABAQUS DOES NOT PRE-ALLOCATE MEMORY AND ONLY ALLOCATES MEMORY AS NEEDED DURING THE ANALYSIS,
          THE MEMORY REQUIREMENT PRINTED HERE CAN ONLY BE VIEWED AS A GENERAL GUIDELINE BASED ON THE BEST
          KNOWLEDGE AVAILABLE AT THE BEGINNING OF A STEP BEFORE THE SOLUTION PROCESS HAS BEGUN.
      (2) THE ESTIMATE IS NORMALLY UPDATED AT THE BEGINNING OF EVERY STEP. IT IS THE MAXIMUM VALUE OF THE
          ESTIMATE FROM THE CURRENT STEP TO THE LAST STEP OF THE ANALYSIS, WITH UNSYMMETRIC SOLUTION TAKEN
          INTO ACCOUNT IF APPLICABLE. 
      (3) SINCE THE ESTIMATE IS BASED ON THE ACTIVE DEGREES OF FREEDOM IN THE FIRST ITERATION OF THE 
          CURRENT STEP, THE MEMORY ESTIMATE MIGHT BE SIGNIFICANTLY DIFFERENT THAN ACTUAL USAGE FOR 
          PROBLEMS WITH SUBSTANTIAL CHANGES IN ACTIVE DEGREES OF FREEDOM BETWEEN STEPS (OR EVEN WITHIN
          THE SAME STEP). EXAMPLES ARE: PROBLEMS WITH SIGNIFICANT CONTACT CHANGES, PROBLEMS WITH MODEL
          CHANGE, PROBLEMS WITH BOTH STATIC STEP AND STEADY STATE DYNAMIC PROCEDURES WHERE ACOUSTIC 
          ELEMENTS WILL ONLY BE ACTIVATED IN THE STEADY STATE DYNAMIC STEPS.
      (4) FOR MULTI-PROCESS EXECUTION, THE ESTIMATED VALUE OF FLOATING POINT OPERATIONS FOR EACH PROCESS
          IS BASED ON AN INITIAL SCHEDULING OF OPERATIONS AND MIGHT NOT REFLECT THE ACTUAL FLOATING 
          POINT OPERATIONS COMPLETED ON EACH PROCESS. OPERATIONS ARE DYNAMICALLY BALANCED DURING EXECUTION, 
          SO THE ACTUAL BALANCE OF OPERATIONS BETWEEN PROCESSES IS EXPECTED TO BE BETTER THAN THE ESTIMATE
          PRINTED HERE.
      (5) THE UPPER LIMIT OF MEMORY THAT CAN BE ALLOCATED BY ABAQUS WILL IN GENERAL DEPEND ON THE VALUE OF
          THE "MEMORY" PARAMETER AND THE AMOUNT OF PHYSICAL MEMORY AVAILABLE ON THE MACHINE. PLEASE SEE
          THE "ABAQUS ANALYSIS USER'S MANUAL" FOR MORE DETAILS. THE ACTUAL USAGE OF MEMORY AND OF DISK
          SPACE FOR SCRATCH DATA WILL DEPEND ON THIS UPPER LIMIT AS WELL AS THE MEMORY REQUIRED TO MINIMIZE
          I/O. IF THE MEMORY UPPER LIMIT IS GREATER THAN THE MEMORY REQUIRED TO MINIMIZE I/O, THEN THE ACTUAL
          MEMORY USAGE WILL BE CLOSE TO THE ESTIMATED "MEMORY TO MINIMIZE I/O" VALUE, AND THE SCRATCH DISK
          USAGE WILL BE CLOSE-TO-ZERO; OTHERWISE, THE ACTUAL MEMORY USED WILL BE CLOSE TO THE PREVIOUSLY
          MENTIONED MEMORY LIMIT, AND THE SCRATCH DISK USAGE WILL BE ROUGHLY PROPORTIONAL TO THE DIFFERENCE
          BETWEEN THE ESTIMATED "MEMORY TO MINIMIZE I/O" AND THE MEMORY UPPER LIMIT. HOWEVER ACCURATE
          ESTIMATE OF THE SCRATCH DISK SPACE IS NOT POSSIBLE.
      (6) USING "*RESTART, WRITE" CAN GENERATE A LARGE AMOUNT OF DATA WRITTEN IN THE WORK DIRECTORY.


          THE ANALYSIS HAS BEEN COMPLETED



                              ANALYSIS COMPLETE
                              WITH      1 WARNING MESSAGES ON THE DAT FILE



     JOB TIME SUMMARY
       USER TIME (SEC)      =  0.50000    
       SYSTEM TIME (SEC)    =  0.20000    
       TOTAL CPU TIME (SEC) =  0.70000    
       WALLCLOCK TIME (SEC) =          1
